/*--------------------------------*- C++ -*----------------------------------*\
| =========                 |                                                 |
| \\      /  F ield         | OpenFOAM: The Open Source CFD Toolbox           |
|  \\    /   O peration     | Version:  8                                     |
|   \\  /    A nd           | Web:      www.OpenFOAM.org                      |
|    \\/     M anipulation  |                                                 |
\*---------------------------------------------------------------------------*/
FoamFile
{
    version     2.0;
    format      ascii;
    class       dictionary;
    location    "system";
    object      fvSolution;
}
// * * * * * * * * * * * * * * * * * * * * * * * * * * * * * * * * * * * * * //

solvers
{
    p
    {
        solver          PCG;
        preconditioner  DIC;

        tolerance       1e-6;
        relTol          0.01;
    }

    pFinal
    {
        $p;
        relTol          0;
    }

	Phi
    {
        $p;
    }

    pcorr
    {
        $p;
        tolerance       1e-3;
        relTol          0.01;
    }

    "(pcorrFinal)"
    {
        $pcorr;
		relTol          0;
    }

    "(U|T|k|epsilon|omega)"
    {
        solver          smoothSolver;
        smoother        symGaussSeidel;
        tolerance       1e-06;
        relTol          0.025;
        maxIter 1000;
        minIter 2;
    }

    "(U|T|k|epsilon|omega)Final"
    {
        $U;
        relTol          0;
    }

}

PIMPLE
{
    momentumPredictor   yes;
    transonic           no;
    consistent          true;
    nOuterCorrectors    3;
    nCorrectors         2;
    nNonOrthogonalCorrectors 2;

    outerCorrectorResidualControl
    {
        p 
        {
            tolerance   1e-3;
            relTol      0;
        }
        T
        {
            tolerance   1e-3;
            relTol      0;
        }
    }
}

relaxationFactors
{
    fields
    {}

    equations
    {
        p       0.3;
        U       0.7;
        k	    0.7;
        epsilon     0.7;
    }
}
// ************************************************************************* //
