/*--------------------------------*- C++ -*----------------------------------*\
| =========                 |                                                 |
| \\      /  F ield         | OpenFOAM: The Open Source CFD Toolbox           |
|  \\    /   O peration     | Version:  v2206                                 |
|   \\  /    A nd           | Website:  www.openfoam.com                      |
|    \\/     M anipulation  |                                                 |
\*---------------------------------------------------------------------------*/
FoamFile
{
    version     2.0;
    format      ascii;
    class       volScalarField;
    object      k;
}
// * * * * * * * * * * * * * * * * * * * * * * * * * * * * * * * * * * * * * //

dimensions      [0 2 -2 0 0 0 0];

internalField   uniform 0.375;

boundaryField
{
    inlet
    {
        type            fixedValue;
        value           uniform 0.375;
    }
    
    ami1
    {
        type            cyclicAMI;
        value           $internalField;
    }
    
    wallstator
    {
        type            kqRWallFunction;
        value           uniform 0.375;
    }
    
    outlet
    {
        type            zeroGradient;
    }
       
    ami2
    {
        type            cyclicAMI;
        value           $internalField;
    }

    shroud
    {
        type            kqRWallFunction;
        value           uniform 0.375;
    }
    
    hub
    {
        type            kqRWallFunction;
        value           uniform 0.375;
    }    

    bladerotor
    {
        type            kqRWallFunction;
        value           uniform 0.375;
    }
    
    bladestator
    {
        type            kqRWallFunction;
        value           uniform 0.375;
    }
}


// ************************************************************************* //
